tests/data/power_flow/automatic-tap-regulator/pgm-automatic-tap-any/input.json
{
  "version": "1.0",
  "type": "input",
  "is_batch": false,
  "attributes": {},
  "data": {
    "node": [
      {
        "id": 0,
        "u_rated": 150000
      },
      {
        "id": 1,
        "u_rated": 21000
      },
      {
        "id": 2,
        "u_rated": 10500
      },
      {
        "id": 3,
        "u_rated": 10500
      },
      {
        "id": 4,
        "u_rated": 10500
      },
      {
        "id": 5,
        "u_rated": 21000
      },
      {
        "id": 6,
        "u_rated": 10500
      },
      {
        "id": 25,
        "u_rated": 21000
      },
      {
        "id": 26,
        "u_rated": 10500
      }
    ],
    "line": [
      {
        "id": 7,
        "from_node": 2,
        "to_node": 3,
        "from_status": 1,
        "to_status": 1,
        "r1": 0.506,
        "x1": 1.07,
        "c1": 5.099999999999999e-06,
        "tan1": 0,
        "r0": 11.47,
        "x0": 2.94,
        "c0": 5.099999999999999e-06,
        "tan0": 0,
        "i_n": 604
      },
      {
        "id": 8,
        "from_node": 1,
        "to_node": 5,
        "from_status": 1,
        "to_status": 1,
        "r1": 1.01,
        "x1": 1.92,
        "c1": 3.2e-06,
        "tan1": 0,
        "r0": 22.36,
        "x0": 6.11,
        "c0": 3.2e-06,
        "tan0": 0,
        "i_n": 431
      },
      {
        "id": 27,
        "from_node": 1,
        "to_node": 25,
        "from_status": 0,
        "to_status": 1,
        "r1": 1.01,
        "x1": 1.92,
        "c1": 3.2e-06,
        "tan1": 0,
        "r0": 22.36,
        "x0": 6.11,
        "c0": 3.2e-06,
        "tan0": 0,
        "i_n": 431
      }
    ],
    "transformer": [
      {
        "id": 9,
        "from_node": 0,
        "to_node": 2,
        "from_status": 1,
        "to_status": 1,
        "u1": 150000,
        "u2": 11000,
        "sn": 12000000,
        "uk": 0.204,
        "pk": 60000,
        "i0": 0,
        "p0": 0,
        "winding_from": 1,
        "winding_to": 2,
        "clock": 5,
        "tap_side": 0,
        "tap_pos": 0,
        "tap_min": -11,
        "tap_max": 9,
        "tap_nom": 0,
        "tap_size": 2500,
        "uk_min": 0.204,
        "uk_max": 0.204,
        "pk_min": 60000,
        "pk_max": 60000,
        "r_grounding_from": 0,
        "x_grounding_from": 0
      },
      {
        "id": 10,
        "from_node": 0,
        "to_node": 2,
        "from_status": 1,
        "to_status": 1,
        "u1": 150000,
        "u2": 11000,
        "sn": 12000000,
        "uk": 0.204,
        "pk": 60000,
        "i0": 0,
        "p0": 0,
        "winding_from": 1,
        "winding_to": 2,
        "clock": 5,
        "tap_side": 0,
        "tap_pos": 0,
        "tap_min": -11,
        "tap_max": 9,
        "tap_nom": 0,
        "tap_size": 2500,
        "uk_min": 0.204,
        "uk_max": 0.204,
        "pk_min": 60000,
        "pk_max": 60000,
        "r_grounding_from": 0,
        "x_grounding_from": 0
      },
      {
        "id": 11,
        "from_node": 0,
        "to_node": 1,
        "from_status": 1,
        "to_status": 1,
        "u1": 150000,
        "u2": 21000,
        "sn": 25000000,
        "uk": 0.208,
        "pk": 80000,
        "i0": 0,
        "p0": 0,
        "winding_from": 1,
        "winding_to": 2,
        "clock": 1,
        "tap_side": 0,
        "tap_pos": 0,
        "tap_min": -16,
        "tap_max": 16,
        "tap_nom": 0,
        "tap_size": 1730,
        "uk_min": 0.208,
        "uk_max": 0.208,
        "pk_min": 80000,
        "pk_max": 80000,
        "r_grounding_from": 0,
        "x_grounding_from": 0
      },
      {
        "id": 12,
        "from_node": 5,
        "to_node": 6,
        "from_status": 1,
        "to_status": 1,
        "u1": 21000,
        "u2": 10000,
        "sn": 12000000,
        "uk": 0.08,
        "pk": 60000,
        "i0": 0,
        "p0": 0,
        "winding_from": 1,
        "winding_to": 0,
        "clock": 0,
        "tap_side": 0,
        "tap_pos": 0,
        "tap_min": -15,
        "tap_max": 15,
        "tap_nom": 0,
        "tap_size": 270,
        "uk_min": 0.08,
        "uk_max": 0.08,
        "pk_min": 60000,
        "pk_max": 60000,
        "r_grounding_from": 0,
        "x_grounding_from": 0
      },
      {
        "id": 13,
        "from_node": 3,
        "to_node": 4,
        "from_status": 1,
        "to_status": 1,
        "u1": 10500,
        "u2": 10500,
        "sn": 12000000,
        "uk": 0.005,
        "pk": 0,
        "i0": 0,
        "p0": 0,
        "winding_from": 0,
        "winding_to": 0,
        "clock": 0,
        "tap_side": 0,
        "tap_pos": 7,
        "tap_min": 1,
        "tap_max": 13,
        "tap_nom": 7,
        "tap_size": 150,
        "uk_min": 0.004500000000000001,
        "uk_max": 0.006,
        "pk_min": 0,
        "pk_max": 0,
        "r_grounding_from": 0,
        "x_grounding_from": 0,
        "r_grounding_to": 0,
        "x_grounding_to": 0
      },
      {
        "id": 24,
        "from_node": 25,
        "to_node": 26,
        "from_status": 1,
        "to_status": 1,
        "u1": 21000,
        "u2": 10500,
        "sn": 12000000,
        "uk": 0.08,
        "pk": 60000,
        "i0": 0,
        "p0": 0,
        "winding_from": 1,
        "winding_to": 0,
        "clock": 0,
        "tap_side": 0,
        "tap_pos": 0,
        "tap_min": -15,
        "tap_max": 15,
        "tap_nom": 0,
        "tap_size": 270,
        "uk_min": 0.08,
        "uk_max": 0.08,
        "pk_min": 60000,
        "pk_max": 60000,
        "r_grounding_from": 0,
        "x_grounding_from": 0
      }
    ],
    "source": [
      {
        "id": 14,
        "node": 0,
        "status": 1,
        "u_ref": 1,
        "sk": 1e+20,
        "rx_ratio": 0.1,
        "z01_ratio": 3
      }
    ],
    "sym_load": [
      {
        "id": 15,
        "node": 1,
        "status": 1,
        "type": 0,
        "p_specified": 10000000,
        "q_specified": 0
      },
      {
        "id": 16,
        "node": 2,
        "status": 1,
        "type": 0,
        "p_specified": 10000000,
        "q_specified": 0
      },
      {
        "id": 17,
        "node": 4,
        "status": 1,
        "type": 0,
        "p_specified": 10000000,
        "q_specified": 0
      },
      {
        "id": 18,
        "node": 6,
        "status": 1,
        "type": 0,
        "p_specified": 10000000,
        "q_specified": 0
      }
    ],
    "transformer_tap_regulator": [
      {
        "id": 19,
        "regulated_object": 9,
        "status": 1,
        "control_side": 1,
        "u_set": 10600,
        "u_band": 1000,
        "line_drop_compensation_r": 0,
        "line_drop_compensation_x": 0
      },
      {
        "id": 20,
        "regulated_object": 10,
        "status": 1,
        "control_side": 1,
        "u_set": 10600,
        "u_band": 1000,
        "line_drop_compensation_r": 0,
        "line_drop_compensation_x": 0
      },
      {
        "id": 21,
        "regulated_object": 11,
        "status": 1,
        "control_side": 1,
        "u_set": 21000,
        "u_band": 2000,
        "line_drop_compensation_r": 0,
        "line_drop_compensation_x": 0
      },
      {
        "id": 22,
        "regulated_object": 12,
        "status": 1,
        "control_side": 1,
        "u_set": 10500,
        "u_band": 1000,
        "line_drop_compensation_r": 0,
        "line_drop_compensation_x": 0
      },
      {
        "id": 23,
        "regulated_object": 13,
        "status": 1,
        "control_side": 1,
        "u_set": 10500,
        "u_band": 1000,
        "line_drop_compensation_r": 0,
        "line_drop_compensation_x": 0
      },
      {
        "id": 28,
        "regulated_object": 24,
        "status": 1,
        "control_side": 1,
        "u_set": 10500,
        "u_band": 1000,
        "line_drop_compensation_r": 0,
        "line_drop_compensation_x": 0
      }
    ]
  }
}
